*SPEF "ieee 1481-1999"
*DESIGN "alu32"
*DATE "06:51:51 Thursday May 28, 2026"
*VENDOR "The OpenROAD Project"
*PROGRAM "OpenROAD"
*VERSION "b16bda7e82721d10566ff7e2b68f1ff0be9f9e38"
*DESIGN_FLOW "NAME_SCOPE LOCAL" "PIN_CAP NONE"
*DIVIDER /
*DELIMITER :
*BUS_DELIMITER []
*T_UNIT 1 NS
*C_UNIT 1 PF
*R_UNIT 1 OHM
*L_UNIT 1 HENRY

*NAME_MAP
*1 A[0]
*2 A[10]
*3 A[11]
*4 A[12]
*5 A[13]
*6 A[14]
*7 A[15]
*8 A[16]
*9 A[17]
*10 A[18]
*11 A[19]
*12 A[1]
*13 A[20]
*14 A[21]
*15 A[22]
*16 A[23]
*17 A[24]
*18 A[25]
*19 A[26]
*20 A[27]
*21 A[28]
*22 A[29]
*23 A[2]
*24 A[30]
*25 A[31]
*26 A[3]
*27 A[4]
*28 A[5]
*29 A[6]
*30 A[7]
*31 A[8]
*32 A[9]
*33 B[0]
*34 B[10]
*35 B[11]
*36 B[12]
*37 B[13]
*38 B[14]
*39 B[15]
*40 B[16]
*41 B[17]
*42 B[18]
*43 B[19]
*44 B[1]
*45 B[20]
*46 B[21]
*47 B[22]
*48 B[23]
*49 B[24]
*50 B[25]
*51 B[26]
*52 B[27]
*53 B[28]
*54 B[29]
*55 B[2]
*56 B[30]
*57 B[31]
*58 B[3]
*59 B[4]
*60 B[5]
*61 B[6]
*62 B[7]
*63 B[8]
*64 B[9]
*67 carry
*68 clk
*69 negative
*70 opcode[0]
*71 opcode[1]
*72 opcode[2]
*73 opcode[3]
*74 opcode[4]
*75 overflow
*76 result[0]
*77 result[10]
*78 result[11]
*79 result[12]
*80 result[13]
*81 result[14]
*82 result[15]
*83 result[16]
*84 result[17]
*85 result[18]
*86 result[19]
*87 result[1]
*88 result[20]
*89 result[21]
*90 result[22]
*91 result[23]
*92 result[24]
*93 result[25]
*94 result[26]
*95 result[27]
*96 result[28]
*97 result[29]
*98 result[2]
*99 result[30]
*100 result[31]
*101 result[3]
*102 result[4]
*103 result[5]
*104 result[6]
*105 result[7]
*106 result[8]
*107 result[9]
*108 rst_n
*109 valid_in
*110 valid_out
*111 zero
*112 _0000_
*113 _0001_
*114 _0002_
*115 _0003_
*116 _0004_
*117 _0005_
*118 _0006_
*119 _0007_
*120 _0008_
*121 _0009_
*122 _0010_
*123 _0011_
*124 _0012_
*125 _0013_
*126 _0014_
*127 _0015_
*128 _0016_
*129 _0017_
*130 _0018_
*131 _0019_
*132 _0020_
*133 _0021_
*134 _0022_
*135 _0023_
*136 _0024_
*137 _0025_
*138 _0026_
*139 _0027_
*140 _0028_
*141 _0029_
*142 _0030_
*143 _0031_
*144 _0032_
*145 _0033_
*146 _0034_
*147 _0035_
*148 _0036_
*149 _0037_
*150 _0038_
*151 _0039_
*152 _0040_
*153 _0041_
*154 _0042_
*155 _0043_
*156 _0044_
*157 _0045_
*158 _0046_
*159 _0047_
*160 _0048_
*161 _0049_
*162 _0050_
*163 _0051_
*164 _0052_
*165 _0053_
*166 _0054_
*167 _0055_
*168 _0056_
*169 _0057_
*170 _0058_
*171 _0059_
*172 _0060_
*173 _0061_
*174 _0062_
*175 _0063_
*176 _0064_
*177 _0065_
*178 _0066_
*179 _0067_
*180 _0068_
*181 _0069_
*182 _0070_
*183 _0071_
*184 _0072_
*185 _0073_
*186 _0074_
*187 _0075_
*188 _0076_
*189 _0077_
*190 _0078_
*191 _0079_
*192 _0080_
*193 _0081_
*194 _0082_
*195 _0083_
*196 _0084_
*197 _0085_
*198 _0086_
*199 _0087_
*200 _0088_
*201 _0089_
*202 _0090_
*203 _0091_
*204 _0092_
*205 _0093_
*206 _0094_
*207 _0095_
*208 _0096_
*209 _0097_
*210 _0098_
*211 _0099_
*212 _0100_
*213 _0101_
*214 _0102_
*215 _0103_
*216 _0104_
*217 _0105_
*218 _0106_
*219 _0107_
*220 _0108_
*221 _0109_
*222 _0110_
*223 _0111_
*224 _0112_
*225 _0113_
*226 _0114_
*227 _0115_
*228 _0116_
*229 _0117_
*230 _0118_
*231 _0119_
*232 _0120_
*233 _0121_
*234 _0122_
*235 _0123_
*236 _0124_
*237 _0125_
*238 _0126_
*239 _0127_
*240 _0128_
*241 _0129_
*242 _0130_
*243 _0131_
*244 _0132_
*245 _0133_
*246 _0134_
*247 _0135_
*248 _0136_
*249 _0137_
*250 _0138_
*251 _0139_
*252 _0140_
*253 _0141_
*254 _0142_
*255 _0143_
*256 _0144_
*257 _0145_
*258 _0146_
*259 _0147_
*260 _0148_
*261 _0149_
*262 _0150_
*263 _0151_
*264 _0152_
*265 _0153_
*266 _0154_
*267 _0155_
*268 _0156_
*269 _0157_
*270 _0158_
*271 _0159_
*272 _0160_
*273 _0161_
*274 _0162_
*275 _0163_
*276 _0164_
*277 _0165_
*278 _0166_
*279 _0167_
*280 _0168_
*281 _0169_
*282 _0170_
*283 _0171_
*284 _0172_
*285 _0173_
*286 _0174_
*287 _0175_
*288 _0176_
*289 _0177_
*290 _0178_
*291 _0179_
*292 _0180_
*293 _0181_
*294 _0182_
*295 _0183_
*296 _0184_
*297 _0185_
*298 _0186_
*299 _0187_
*300 _0188_
*301 _0189_
*302 _0190_
*303 _0191_
*304 _0192_
*305 _0193_
*306 _0194_
*307 _0195_
*308 _0196_
*309 _0197_
*310 _0198_
*311 _0199_
*312 _0200_
*313 _0201_
*314 _0202_
*315 _0203_
*316 _0204_
*317 _0205_
*318 _0206_
*319 _0207_
*320 _0208_
*321 _0209_
*322 _0210_
*323 _0211_
*324 _0212_
*325 _0213_
*326 _0214_
*327 _0215_
*328 _0216_
*329 _0217_
*330 _0218_
*331 _0219_
*332 _0220_
*333 _0221_
*334 _0222_
*335 _0223_
*336 _0224_
*337 _0225_
*338 _0226_
*339 _0227_
*340 _0228_
*341 _0229_
*342 _0230_
*343 _0231_
*344 _0232_
*345 _0233_
*346 _0234_
*347 _0235_
*348 _0236_
*349 _0237_
*350 _0238_
*351 _0239_
*352 _0240_
*353 _0241_
*354 _0242_
*355 _0243_
*356 _0244_
*357 _0245_
*358 _0246_
*359 _0247_
*360 _0248_
*361 _0249_
*362 _0250_
*363 _0251_
*364 _0252_
*365 _0253_
*366 _0254_
*367 _0255_
*368 _0256_
*369 _0257_
*370 _0258_
*371 _0259_
*372 _0260_
*373 _0261_
*374 _0262_
*375 _0263_
*376 _0264_
*377 _0265_
*378 _0266_
*379 _0267_
*380 _0268_
*381 _0269_
*382 _0270_
*383 _0271_
*384 _0272_
*385 _0273_
*386 _0274_
*387 _0275_
*388 _0276_
*389 _0277_
*390 _0278_
*391 _0279_
*392 _0280_
*393 _0281_
*394 _0282_
*395 _0283_
*396 _0284_
*397 _0285_
*398 _0286_
*399 _0287_
*400 _0288_
*401 _0289_
*402 _0290_
*403 _0291_
*404 _0292_
*405 _0293_
*406 _0294_
*407 _0295_
*408 _0296_
*409 _0297_
*410 _0298_
*411 _0299_
*412 _0300_
*413 _0301_
*414 _0302_
*415 _0303_
*416 _0304_
*417 _0305_
*418 _0306_
*419 _0307_
*420 _0308_
*421 _0309_
*422 _0310_
*423 _0311_
*424 _0312_
*425 _0313_
*426 _0314_
*427 _0315_
*428 _0316_
*429 _0317_
*430 _0318_
*431 _0319_
*432 _0320_
*433 _0321_
*434 _0322_
*435 _0323_
*436 _0324_
*437 _0325_
*438 _0326_
*439 _0327_
*440 _0328_
*441 _0329_
*442 _0330_
*443 _0331_
*444 _0332_
*445 _0333_
*446 _0334_
*447 _0335_
*448 _0336_
*449 _0337_
*450 _0338_
*451 _0339_
*452 _0340_
*453 _0341_
*454 _0342_
*455 _0343_
*456 _0344_
*457 _0345_
*458 _0346_
*459 _0347_
*460 _0348_
*461 _0349_
*462 _0350_
*463 _0351_
*464 _0352_
*465 _0353_
*466 _0354_
*467 _0355_
*468 _0356_
*469 _0357_
*470 _0358_
*471 _0359_
*472 _0360_
*473 _0361_
*474 _0362_
*475 _0363_
*476 _0364_
*477 _0365_
*478 _0366_
*479 _0367_
*480 _0368_
*481 _0369_
*482 _0370_
*483 _0371_
*484 _0372_
*485 _0373_
*486 _0374_
*487 _0375_
*488 _0376_
*489 _0377_
*490 _0378_
*491 _0379_
*492 _0380_
*493 _0381_
*494 _0382_
*495 _0383_
*496 _0384_
*497 _0385_
*498 _0386_
*499 _0387_
*500 _0388_
*501 _0389_
*502 _0390_
*503 _0391_
*504 _0392_
*505 _0393_
*506 _0394_
*507 _0395_
*508 _0396_
*509 _0397_
*510 _0398_
*511 _0399_
*512 _0400_
*513 _0401_
*514 _0402_
*515 _0403_
*516 _0404_
*517 _0405_
*518 _0406_
*519 _0407_
*520 _0408_
*521 _0409_
*522 _0410_
*523 _0411_
*524 _0412_
*525 _0413_
*526 _0414_
*527 _0415_
*528 _0416_
*529 _0417_
*530 _0418_
*531 _0419_
*532 _0420_
*533 _0421_
*534 _0422_
*535 _0423_
*536 _0424_
*537 _0425_
*538 _0426_
*539 _0427_
*540 _0428_
*541 _0429_
*542 _0430_
*543 _0431_
*544 _0432_
*545 _0433_
*546 _0434_
*547 _0435_
*548 _0436_
*549 _0437_
*550 _0438_
*551 _0439_
*552 _0440_
*553 _0441_
*554 _0442_
*555 _0443_
*556 _0444_
*557 _0445_
*558 _0446_
*559 _0447_
*560 _0448_
*561 _0449_
*562 _0450_
*563 _0451_
*564 _0452_
*565 _0453_
*566 _0454_
*567 _0455_
*568 _0456_
*569 _0457_
*570 _0458_
*571 _0459_
*572 _0460_
*573 _0461_
*574 _0462_
*575 _0463_
*576 _0464_
*577 _0465_
*578 _0466_
*579 _0467_
*580 _0468_
*581 _0469_
*582 _0470_
*583 _0471_
*584 _0472_
*585 _0473_
*586 _0474_
*587 _0475_
*588 _0476_
*589 _0477_
*590 _0478_
*591 _0479_
*592 _0480_
*593 _0481_
*594 _0482_
*595 _0483_
*596 _0484_
*597 _0485_
*598 _0486_
*599 _0487_
*600 _0488_
*601 _0489_
*602 _0490_
*603 _0491_
*604 _0492_
*605 _0493_
*606 _0494_
*607 _0495_
*608 _0496_
*609 _0497_
*610 _0498_
*611 _0499_
*612 _0500_
*613 _0501_
*614 _0502_
*615 _0503_
*616 _0504_
*617 _0505_
*618 _0506_
*619 _0507_
*620 _0508_
*621 _0509_
*622 _0510_
*623 _0511_
*624 _0512_
*625 _0513_
*626 _0514_
*627 _0515_
*628 _0516_
*629 _0517_
*630 _0518_
*631 _0519_
*632 _0520_
*633 _0521_
*634 _0522_
*635 _0523_
*636 _0524_
*637 _0525_
*638 _0526_
*639 _0527_
*640 _0528_
*641 _0529_
*642 _0530_
*643 _0531_
*644 _0532_
*645 _0533_
*646 _0534_
*647 _0535_
*648 _0536_
*649 _0537_
*650 _0538_
*651 _0539_
*652 _0540_
*653 _0541_
*654 _0542_
*655 _0543_
*656 _0544_
*657 _0545_
*658 _0546_
*659 _0547_
*660 _0548_
*661 _0549_
*662 _0550_
*663 _0551_
*664 _0552_
*665 _0553_
*666 _0554_
*667 _0555_
*668 _0556_
*669 _0557_
*670 _0558_
*671 _0559_
*672 _0560_
*673 _0561_
*674 _0562_
*675 _0563_
*676 _0564_
*677 _0565_
*678 _0566_
*679 _0567_
*680 _0568_
*681 _0569_
*682 _0570_
*683 _0571_
*684 _0572_
*685 _0573_
*686 _0574_
*687 _0575_
*688 _0576_
*689 _0577_
*690 _0578_
*691 _0579_
*692 _0580_
*693 _0581_
*694 _0582_
*695 _0583_
*696 _0584_
*697 _0585_
*698 _0586_
*699 _0587_
*700 _0588_
*701 _0589_
*702 _0590_
*703 _0591_
*704 _0592_
*705 _0593_
*706 _0594_
*707 _0595_
*708 _0596_
*709 _0597_
*710 _0598_
*711 _0599_
*712 _0600_
*713 _0601_
*714 _0602_
*715 _0603_
*716 _0604_
*717 _0605_
*718 _0606_
*719 _0607_
*720 _0608_
*721 _0609_
*722 _0610_
*723 _0611_
*724 _0612_
*725 _0613_
*726 _0614_
*727 _0615_
*728 _0616_
*729 _0617_
*730 _0618_
*731 _0619_
*732 _0620_
*733 _0621_
*734 _0622_
*735 _0623_
*736 _0624_
*737 _0625_
*738 _0626_
*739 _0627_
*740 _0628_
*741 _0629_
*742 _0630_
*743 _0631_
*744 _0632_
*745 _0633_
*746 _0634_
*747 _0635_
*748 _0636_
*749 _0637_
*750 _0638_
*751 _0639_
*752 _0640_
*753 _0641_
*754 _0642_
*755 _0643_
*756 _0644_
*757 _0645_
*758 _0646_
*759 _0647_
*760 _0648_
*761 _0649_
*762 _0650_
*763 _0651_
*764 _0652_
*765 _0653_
*766 _0654_
*767 _0655_
*768 _0656_
*769 _0657_
*770 _0658_
*771 _0659_
*772 _0660_
*773 _0661_
*774 _0662_
*775 _0663_
*776 _0664_
*777 _0665_
*778 _0666_
*779 _0667_
*780 _0668_
*781 _0669_
*782 _0670_
*783 _0671_
*784 _0672_
*785 _0673_
*786 _0674_
*787 _0675_
*788 _0676_
*789 _0677_
*790 _0678_
*791 _0679_
*792 _0680_
*793 _0681_
*794 _0682_
*795 _0683_
*796 _0684_
*797 _0685_
*798 _0686_
*799 _0687_
*800 _0688_
*801 _0689_
*802 _0690_
*803 _0691_
*804 _0692_
*805 _0693_
*806 _0694_
*807 _0695_
*808 _0696_
*809 _0697_
*810 _0698_
*811 _0699_
*812 _0700_
*813 _0701_
*814 _0702_
*815 _0703_
*816 _0704_
*817 _0705_
*818 _0706_
*819 _0707_
*820 _0708_
*821 _0709_
*822 _0710_
*823 _0711_
*824 _0712_
*825 _0713_
*826 _0714_
*827 _0715_
*828 _0716_
*829 _0717_
*830 _0718_
*831 _0719_
*832 _0720_
*833 _0721_
*834 _0722_
*835 _0723_
*836 _0724_
*837 _0725_
*838 _0726_
*839 _0727_
*840 _0728_
*841 _0729_
*842 _0730_
*843 _0731_
*844 _0732_
*845 _0733_
*846 _0734_
*847 _0735_
*848 _0736_
*849 _0737_
*850 _0738_
*851 _0739_
*852 _0740_
*853 _0741_
*854 _0742_
*855 _0743_
*856 _0744_
*857 _0745_
*858 _0746_
*859 _0747_
*860 _0748_
*861 _0749_
*862 _0750_
*863 _0751_
*864 _0752_
*865 _0753_
*866 _0754_
*867 _0755_
*868 _0756_
*869 _0757_
*870 _0758_
*871 _0759_
*872 _0760_
*873 _0761_
*874 _0762_
*875 _0763_
*876 _0764_
*877 _0765_
*878 _0766_
*879 _0767_
*880 _0768_
*881 _0769_
*882 _0770_
*883 _0771_
*884 _0772_
*885 _0773_
*886 _0774_
*887 _0775_
*888 _0776_
*889 _0777_
*890 _0778_
*891 _0779_
*892 _0780_
*893 _0781_
*894 _0782_
*895 _0783_
*896 _0784_
*897 _0785_
*898 _0786_
*899 _0787_
*900 _0788_
*901 _0789_
*902 _0790_
*903 _0791_
*904 _0792_
*905 _0793_
*906 _0794_
*907 _0795_
*908 _0796_
*909 _0797_
*910 _0798_
*911 _0799_
*912 _0800_
*913 _0801_
*914 _0802_
*915 _0803_
*916 _0804_
*917 _0805_
*918 _0806_
*919 _0807_
*920 _0808_
*921 _0809_
*922 _0810_
*923 _0811_
*924 _0812_
*925 _0813_
*926 _0814_
*927 _0815_
*928 _0816_
*929 _0817_
*930 _0818_
*931 _0819_
*932 _0820_
*933 _0821_
*934 _0822_
*935 _0823_
*936 _0824_
*937 _0825_
*938 _0826_
*939 _0827_
*940 _0828_
*941 _0829_
*942 _0830_
*943 _0831_
*944 _0832_
*945 _0833_
*946 _0834_
*947 _0835_
*948 _0836_
*949 _0837_
*950 _0838_
*951 _0839_
*952 _0840_
*953 _0841_
*954 _0842_
*955 _0843_
*956 _0844_
*957 _0845_
*958 _0846_
*959 _0847_
*960 _0848_
*961 _0849_
*962 _0850_
*963 _0851_
*964 _0852_
*965 _0853_
*966 _0854_
*967 _0855_
*968 _0856_
*969 _0857_
*970 _0858_
*971 _0859_
*972 _0860_
*973 _0861_
*974 _0862_
*975 _0863_
*976 _0864_
*977 _0865_
*978 _0866_
*979 _0867_
*980 _0868_
*981 _0869_
*982 _0870_
*983 _0871_
*984 _0872_
*985 _0873_
*986 _0874_
*987 _0875_
*988 _0876_
*989 _0877_
*990 _0878_
*991 _0879_
*992 _0880_
*993 _0881_
*994 _0882_
*995 _0883_
*996 _0884_
*997 _0885_
*998 _0886_
*999 _0887_
*1000 _0888_
*1001 _0889_
*1002 _0890_
*1003 _0891_
*1004 _0892_
*1005 _0893_
*1006 _0894_
*1007 _0895_
*1008 _0896_
*1009 _0897_
*1010 _0898_
*1011 _0899_
*1012 _0900_
*1013 _0901_
*1014 _0902_
*1015 _0903_
*1016 _0904_
*1017 _0905_
*1018 _0906_
*1019 _0907_
*1020 _0908_
*1021 _0909_
*1022 _0910_
*1023 _0911_
*1024 _0912_
*1025 _0913_
*1026 _0914_
*1027 _0915_
*1028 _0916_
*1029 _0917_
*1030 _0918_
*1031 _0919_
*1032 _0920_
*1033 _0921_
*1034 _0922_
*1035 _0923_
*1036 _0924_
*1037 _0925_
*1038 _0926_
*1039 _0927_
*1040 _0928_
*1041 _0929_
*1042 _0930_
*1043 _0931_
*1044 _0932_
*1045 _0933_
*1046 _0934_
*1047 _0935_
*1048 _0936_
*1049 _0937_
*1050 _0938_
*1051 _0939_
*1052 _0940_
*1053 _0941_
*1054 _0942_
*1055 _0943_
*1056 _0944_
*1057 _0945_
*1058 _0946_
*1059 _0947_
*1060 _0948_
*1061 _0949_
*1062 _0950_
*1063 _0951_
*1064 _0952_
*1065 _0953_
*1066 _0954_
*1067 _0955_
*1068 _0956_
*1069 _0957_
*1070 _0958_
*1071 _0959_
*1072 _0960_
*1073 _0961_
*1074 _0962_
*1075 _0963_
*1076 _0964_
*1077 _0965_
*1078 _0966_
*1079 _0967_
*1080 _0968_
*1081 _0969_
*1082 _0970_
*1083 _0971_
*1084 _0972_
*1085 _0973_
*1086 _0974_
*1087 _0975_
*1088 _0976_
*1089 _0977_
*1090 _0978_
*1091 _0979_
*1092 _0980_
*1093 _0981_
*1094 _0982_
*1095 _0983_
*1096 _0984_
*1097 _0985_
*1098 _0986_
*1099 _0987_
*1100 _0988_
*1101 _0989_
*1102 _0990_
*1103 _0991_
*1104 _0992_
*1105 _0993_
*1106 _0994_
*1107 _0995_
*1108 _0996_
*1109 _0997_
*1110 _0998_
*1111 _0999_
*1112 _1000_
*1113 _1001_
*1114 _1002_
*1115 _1003_
*1116 _1004_
*1117 _1005_
*1118 _1006_
*1119 _1007_
*1120 _1008_
*1121 _1009_
*1122 _1010_
*1123 _1011_
*1124 _1012_
*1125 _1013_
*1126 _1014_
*1127 _1015_
*1128 _1016_
*1129 _1017_
*1130 _1018_
*1131 _1019_
*1132 _1020_
*1133 _1021_
*1134 _1022_
*1135 _1023_
*1136 _1024_
*1137 _1025_
*1138 _1026_
*1139 _1027_
*1140 _1028_
*1141 _1029_
*1142 _1030_
*1143 _1031_
*1144 _1032_
*1145 _1033_
*1146 _1034_
*1147 _1035_
*1148 _1036_
*1149 _1037_
*1150 _1038_
*1151 _1039_
*1152 _1040_
*1153 _1041_
*1154 _1042_
*1155 _1043_
*1156 _1044_
*1157 _1045_
*1158 _1046_
*1159 _1047_
*1160 _1048_
*1161 _1049_
*1162 _1050_
*1163 _1051_
*1164 _1052_
*1165 _1053_
*1166 _1054_
*1167 _1055_
*1168 _1056_
*1169 _1057_
*1170 _1058_
*1171 _1059_
*1172 _1060_
*1173 _1061_
*1174 _1062_
*1175 _1063_
*1176 _1064_
*1177 _1065_
*1178 _1066_
*1179 _1067_
*1180 _1068_
*1181 _1069_
*1182 _1070_
*1183 _1071_
*1184 _1072_
*1185 _1073_
*1186 _1074_
*1187 _1075_
*1188 _1076_
*1189 _1077_
*1190 _1078_
*1191 _1079_
*1192 _1080_
*1193 _1081_
*1194 _1082_
*1195 _1083_
*1196 _1084_
*1197 _1085_
*1198 _1086_
*1199 _1087_
*1200 _1088_
*1201 _1089_
*1202 _1090_
*1203 _1091_
*1204 _1092_
*1205 _1093_
*1206 _1094_
*1207 _1095_
*1208 _1096_
*1209 _1097_
*1210 _1098_
*1211 _1099_
*1212 _1100_
*1213 _1101_
*1214 _1102_
*1215 _1103_
*1216 _1104_
*1217 _1105_
*1218 _1106_
*1219 _1107_
*1220 _1108_
*1221 _1109_
*1222 _1110_
*1223 _1111_
*1224 _1112_
*1225 _1113_
*1226 _1114_
*1227 _1115_
*1228 _1116_
*1229 _1117_
*1230 _1118_
*1231 _1119_
*1232 _1120_
*1233 _1121_
*1234 _1122_
*1235 _1123_
*1236 _1124_
*1237 _1125_
*1238 _1126_
*1239 _1127_
*1240 _1128_
*1241 _1129_
*1242 _1130_
*1243 _1131_
*1244 _1132_
*1245 _1133_
*1246 _1134_
*1247 _1135_
*1248 _1136_
*1249 _1137_
*1250 _1138_
*1251 _1139_
*1252 _1140_
*1253 _1141_
*1254 _1142_
*1255 _1143_
*1256 _1144_
*1257 _1145_
*1258 _1146_
*1259 _1147_
*1260 _1148_
*1261 _1149_
*1262 _1150_
*1263 _1151_
*1264 _1152_
*1265 _1153_
*1266 _1154_
*1267 _1155_
*1268 _1156_
*1269 _1157_
*1270 _1158_
*1271 _1159_
*1272 _1160_
*1273 _1161_
*1274 _1162_
*1275 _1163_
*1276 _1164_
*1277 _1165_
*1278 _1166_
*1279 _1167_
*1280 _1168_
*1281 _1169_
*1282 _1170_
*1283 _1171_
*1284 _1172_
*1285 _1173_
*1286 _1174_
*1287 _1175_
*1288 _1176_
*1289 _1177_
*1290 _1178_
*1291 _1179_
*1292 _1180_
*1293 _1181_
*1294 _1182_
*1295 _1183_
*1296 _1184_
*1297 _1185_
*1298 _1186_
*1299 _1187_
*1300 _1188_
*1301 _1189_
*1302 _1190_
*1303 _1191_
*1304 _1192_
*1305 _1193_
*1306 _1194_
*1307 _1195_
*1308 _1196_
*1309 _1197_
*1310 _1198_
*1311 _1199_
*1312 _1200_
*1313 _1201_
*1314 _1202_
*1315 _1203_
*1316 _1204_
*1317 _1205_
*1318 _1206_
*1319 _1207_
*1320 _1208_
*1321 _1209_
*1322 _1210_
*1323 _1211_
*1324 _1212_
*1325 _1213_
*1326 _1214_
*1327 _1215_
*1328 _1216_
*1329 _1217_
*1330 _1218_
*1331 _1219_
*1332 _1220_
*1333 _1221_
*1334 _1222_
*1335 _1223_
*1336 _1224_
*1337 _1225_
*1338 _1226_
*1339 _1227_
*1340 _1228_
*1341 _1229_
*1342 _1230_
*1343 _1231_
*1344 _1232_
*1345 _1233_
*1346 _1234_
*1347 _1235_
*1348 _1236_
*1349 _1237_
*1350 _1238_
*1351 _1239_
*1352 _1240_
*1353 _1241_
*1354 _1242_
*1355 _1243_
*1356 _1244_
*1357 _1245_
*1358 _1246_
*1359 _1247_
*1360 _1248_
*1361 _1249_
*1362 _1250_
*1363 _1251_
*1364 _1252_
*1365 _1253_
*1366 _1254_
*1367 _1255_
*1368 _1256_
*1369 _1257_
*1370 _1258_
*1371 _1259_
*1372 _1260_
*1373 _1261_
*1374 _1262_
*1375 _1263_
*1376 _1264_
*1377 _1265_
*1378 _1266_
*1379 _1267_
*1380 _1268_
*1381 _1269_
*1382 _1270_
*1383 _1271_
*1384 _1272_
*1385 _1273_
*1386 _1274_
*1387 _1275_
*1388 _1276_
*1389 _1277_
*1390 _1278_
*1391 _1279_
*1392 _1280_
*1393 _1281_
*1394 _1282_
*1395 _1283_
*1396 _1284_
*1397 _1285_
*1398 _1286_
*1399 _1287_
*1400 _1288_
*1401 _1289_
*1402 _1290_
*1403 _1291_
*1404 _1292_
*1405 _1293_
*1406 _1294_
*1407 _1295_
*1408 _1296_
*1409 _1297_
*1410 _1298_
*1411 _1299_
*1412 _1300_
*1413 _1301_
*1414 _1302_
*1415 _1303_
*1416 _1304_
*1417 _1305_
*1418 _1306_
*1419 _1307_
*1420 _1308_
*1421 _1309_
*1422 _1310_
*1423 _1311_
*1424 _1312_
*1425 _1313_
*1426 _1314_
*1427 _1315_
*1428 _1316_
*1429 _1317_
*1430 _1318_
*1431 _1319_
*1432 _1320_
*1433 _1321_
*1434 _1322_
*1435 _1323_
*1436 _1324_
*1437 _1325_
*1438 _1326_
*1439 _1327_
*1440 _1328_
*1441 _1329_
*1442 _1330_
*1443 _1331_
*1444 _1332_
*1445 _1333_
*1446 _1334_
*1447 _1335_
*1448 _1336_
*1449 _1337_
*1450 _1338_
*1451 _1339_
*1452 _1340_
*1453 _1341_
*1454 _1342_
*1455 _1343_
*1456 _1344_
*1457 _1345_
*1458 _1346_
*1459 _1347_
*1460 _1348_
*1461 _1349_
*1462 _1350_
*1463 _1351_
*1464 _1352_
*1465 _1353_
*1466 _1354_
*1467 _1355_
*1468 _1356_
*1469 _1357_
*1470 _1358_
*1471 _1359_
*1472 _1360_
*1473 _1361_
*1474 _1362_
*1475 _1363_
*1476 _1364_
*1477 _1365_
*1478 _1366_
*1479 _1367_
*1480 _1368_
*1481 _1369_
*1482 _1370_
*1483 _1371_
*1484 _1372_
*1485 _1373_
*1486 _1374_
*1487 _1375_
*1488 _1376_
*1489 _1377_
*1490 _1378_
*1491 _1379_
*1492 _1380_
*1493 _1381_
*1494 _1382_
*1495 _1383_
*1496 _1384_
*1497 _1385_
*1498 _1386_
*1499 _1387_
*1500 _1388_
*1501 _1389_
*1502 _1390_
*1503 _1391_
*1504 _1392_
*1505 _1393_
*1506 _1394_
*1507 _1395_
*1508 _1396_
*1509 _1397_
*1510 _1398_
*1511 _1399_
*1512 _1400_
*1513 _1401_
*1514 _1402_
*1515 _1403_
*1516 _1404_
*1517 _1405_
*1518 _1406_
*1519 _1407_
*1520 _1408_
*1521 _1409_
*1522 _1410_
*1523 _1411_
*1524 _1412_
*1525 _1413_
*1526 _1414_
*1527 _1415_
*1528 _1416_
*1529 _1417_
*1530 _1418_
*1531 _1419_
*1532 _1420_
*1533 _1421_
*1534 _1422_
*1535 _1423_
*1536 _1424_
*1537 _1425_
*1538 _1426_
*1539 _1427_
*1540 _1428_
*1541 _1429_
*1542 _1430_
*1543 _1431_
*1544 _1432_
*1545 _1433_
*1546 _1434_
*1547 _1435_
*1548 _1436_
*1549 _1437_
*1550 _1438_
*1551 _1439_
*1552 _1440_
*1553 _1441_
*1554 _1442_
*1555 _1443_
*1556 _1444_
*1557 _1445_
*1558 _1446_
*1559 _1447_
*1560 _1448_
*1561 _1449_
*1562 _1450_
*1563 _1451_
*1564 _1452_
*1565 _1453_
*1566 _1454_
*1567 _1455_
*1568 _1456_
*1569 _1457_
*1570 _1458_
*1571 _1459_
*1572 _1460_
*1573 _1461_
*1574 _1462_
*1575 _1463_
*1576 _1464_
*1577 _1465_
*1578 _1466_
*1579 _1467_
*1580 _1468_
*1581 _1469_
*1582 _1470_
*1583 _1471_
*1584 _1472_
*1585 _1473_
*1586 _1474_
*1587 _1475_
*1588 _1476_
*1589 _1477_
*1590 _1478_
*1591 _1479_
*1592 _1480_
*1593 _1481_
*1594 _1482_
*1595 _1483_
*1596 _1484_
*1597 _1485_
*1598 _1486_
*1599 _1487_
*1600 _1488_
*1601 _1489_
*1602 _1490_
*1603 _1491_
*1604 _1492_
*1605 _1493_
*1606 _1494_
*1607 _1495_
*1608 _1496_
*1609 _1497_
*1610 _1498_
*1611 _1499_
*1612 _1500_
*1613 _1501_
*1614 _1502_
*1615 _1503_
*1616 _1504_
*1617 _1505_
*1618 _1506_
*1619 _1507_
*1620 _1508_
*1621 _1509_
*1622 _1510_
*1623 _1511_
*1624 _1512_
*1625 _1513_
*1626 _1514_
*1627 _1515_
*1628 _1516_
*1629 _1517_
*1630 _1518_
*1631 _1519_
*1632 _1520_
*1633 _1521_
*1634 _1522_
*1635 _1523_
*1636 _1524_
*1637 _1525_
*1638 _1526_
*1639 _1527_
*1640 _1528_
*1641 _1529_
*1642 _1530_
*1643 _1531_
*1644 _1532_
*1645 _1533_
*1646 _1534_
*1647 _1535_
*1648 _1536_
*1649 _1537_
*1650 _1538_
*1651 _1539_
*1652 _1540_
*1653 _1541_
*1654 _1542_
*1655 _1543_
*1656 _1544_
*1657 _1545_
*1658 _1546_
*1659 _1547_
*1660 _1548_
*1661 _1549_
*1662 _1550_
*1663 _1551_
*1664 _1552_
*1665 _1553_
*1666 _1554_
*1667 _1555_
*1668 _1556_
*1669 _1557_
*1670 _1558_
*1671 _1559_
*1672 _1560_
*1673 _1561_
*1674 _1562_
*1675 _1563_
*1676 _1564_
*1677 _1565_
*1678 _1566_
*1679 _1567_
*1680 _1568_
*1681 _1569_
*1682 _1570_
*1683 _1571_
*1684 _1572_
*1685 _1573_
*1686 _1574_
*1687 _1575_
*1688 _1576_
*1689 _1577_
*1690 _1578_
*1691 _1579_
*1692 _1580_
*1693 _1581_
*1694 _1582_
*1695 _1583_
*1696 _1584_
*1697 _1585_
*1698 _1586_
*1699 _1587_
*1700 _1588_
*1701 _1589_
*1702 _1590_
*1703 _1591_
*1704 _1592_
*1705 _1593_
*1706 _1594_
*1707 _1595_
*1708 _1596_
*1709 _1597_
*1710 _1598_
*1711 _1599_
*1712 _1600_
*1713 _1601_
*1714 _1602_
*1715 _1603_
*1716 _1604_
*1717 _1605_
*1718 _1606_
*1719 _1607_
*1720 _1608_
*1721 _1609_
*1722 _1610_
*1723 _1611_
*1724 _1612_
*1725 _1613_
*1726 _1614_
*1727 _1615_
*1728 _1616_
*1729 _1617_
*1730 _1618_
*1731 _1619_
*1732 _1620_
*1733 _1621_
*1734 _1622_
*1735 _1623_
*1736 _1624_
*1737 _1625_
*1738 _1626_
*1739 _1627_
*1740 _1628_
*1741 _1629_
*1742 _1630_
*1743 _1631_
*1744 _1632_
*1745 _1633_
*1746 _1634_
*1747 _1635_
*1748 _1636_
*1749 _1637_
*1750 _1638_
*1751 _1639_
*1752 _1640_
*1753 _1641_
*1754 _1642_
*1755 _1643_
*1756 _1644_
*1757 _1645_
*1758 _1646_
*1759 _1647_
*1760 _1648_
*1761 _1649_
*1762 _1650_
*1763 _1651_
*1764 _1652_
*1765 _1653_
*1766 _1654_
*1767 _1655_
*1768 _1656_
*1769 _1657_
*1770 _1658_
*1771 _1659_
*1772 _1660_
*1773 _1661_
*1774 _1662_
*1775 _1663_
*1776 _1664_
*1777 _1665_
*1778 _1666_
*1779 _1667_
*1780 _1668_
*1781 _1669_
*1782 _1670_
*1783 _1671_
*1784 _1672_
*1785 _1673_
*1786 _1674_
*1787 _1675_
*1788 _1676_
*1789 _1677_
*1790 _1678_
*1791 _1679_
*1792 _1680_
*1793 _1681_
*1794 _1682_
*1795 _1683_
*1796 _1684_
*1797 _1685_
*1798 _1686_
*1799 _1687_
*1800 _1688_
*1801 _1689_
*1802 _1690_
*1803 _1691_
*1804 _1692_
*1805 _1693_
*1806 _1694_
*1807 _1695_
*1808 _1696_
*1809 _1697_
*1810 _1698_
*1811 _1699_
*1812 _1700_
*1813 _1701_
*1814 _1702_
*1815 _1703_
*1816 _1704_
*1817 _1705_
*1818 _1706_
*1819 _1707_
*1820 _1708_
*1821 _1709_
*1822 _1710_
*1823 _1711_
*1824 _1712_
*1825 _1713_
*1826 _1714_
*1827 _1715_
*1828 _1716_
*1829 _1717_
*1830 _1718_
*1831 _1719_
*1832 _1720_
*1833 _1721_
*1834 _1722_
*1835 _1723_
*1836 _1724_
*1837 _1725_
*1838 _1726_
*1839 _1727_
*1840 _1728_
*1841 _1729_
*1842 _1730_
*1843 _1731_
*1844 _1732_
*1845 _1733_
*1846 _1734_
*1847 _1735_
*1848 _1736_
*1849 _1737_
*1850 _1738_
*1851 _1739_
*1852 _1740_
*1853 _1741_
*1854 _1742_
*1855 _1743_
*1856 _1744_
*1857 _1745_
*1858 _1746_
*1859 _1747_
*1860 _1748_
*1861 _1749_
*1862 _1750_
*1863 _1751_
*1864 _1752_
*1865 _1753_
*1866 _1754_
*1867 _1755_
*1868 _1756_
*1869 _1757_
*1870 _1758_
*1871 _1759_
*1872 _1760_
*1873 _1761_
*1874 _1762_
*1875 _1763_
*1876 _1764_
*1877 _1765_
*1878 _1766_
*1879 _1767_
*1880 _1768_
*1881 _1769_
*1882 _1770_
*1883 _1771_
*1884 _1772_
*1885 _1773_
*1886 _1774_
*1887 _1775_
*1888 _1776_
*1889 _1777_
*1890 _1778_
*1891 _1779_
*1892 _1780_
*1893 _1781_
*1894 _1782_
*1895 _1783_
*1896 _1784_
*1897 _1785_
*1898 _1786_
*1899 _1787_
*1900 _1788_
*1901 _1789_
*1902 _1790_
*1903 _1791_
*1904 _1792_
*1905 _1793_
*1906 _1794_
*1907 _1795_
*1908 _1796_
*1909 _1797_
*1910 _1798_
*1911 _1799_
*1912 _1800_
*1913 _1801_
*1914 _1802_
*1915 _1803_
*1916 _1804_
*1917 _1805_
*1918 _1806_
*1919 _1807_
*1920 _1808_
*1921 _1809_
*1922 _1810_
*1923 _1811_
*1924 _1812_
*1925 _1813_
*1926 _1814_
*1927 _1815_
*1928 _1816_
*1929 _1817_
*1930 _1818_
*1931 _1819_
*1932 _1820_
*1933 _1821_
*1934 _1822_
*1935 _1823_
*1936 _1824_
*1937 _1825_
*1938 _1826_
*1939 _1827_
*1940 _1828_
*1941 _1829_
*1942 _1830_
*1943 _1831_
*1944 _1832_
*1945 _1833_
*1946 _1834_
*1947 _1835_
*1948 _1836_
*1949 _1837_
*1950 _1838_
*1951 _1839_
*1952 _1840_
*1953 _1841_
*1954 _1842_
*1955 _1843_
*1956 _1844_
*1957 _1845_
*1958 _1846_
*1959 _1847_
*1960 _1848_
*1961 _1849_
*1962 _1850_
*1963 _1851_
*1964 _1852_
*1965 _1853_
*1966 _1854_
*1967 _1855_
*1968 _1856_
*1969 _1857_
*1970 _1858_
*1971 _1859_
*1972 _1860_
*1973 _1861_
*1974 _1862_
*1975 _1863_
*1976 _1864_
*1977 _1865_
*1978 _1866_
*1979 _1867_
*1980 _1868_
*1981 _1869_
*1982 _1870_
*1983 _1871_
*1984 _1872_
*1985 _1873_
*1986 _1874_
*1987 _1875_
*1988 _1876_
*1989 _1877_
*1990 _1878_
*1991 _1879_
*1992 _1880_
*1993 _1881_
*1994 _1882_
*1995 _1883_
*1996 _1884_
*1997 _1885_
*1998 _1886_
*1999 _1887_
*2000 _1888_
*2001 _1889_
*2002 _1890_
*2003 _1891_
*2004 _1892_
*2005 _1893_
*2006 _1894_
*2007 _1895_
*2008 _1896_
*2009 _1897_
*2010 _1898_
*2011 _1899_
*2012 _1900_
*2013 _1901_
*2014 _1902_
*2015 _1903_
*2016 _1904_
*2017 _1905_
*2018 _1906_
*2019 _1907_
*2020 _1908_
*2021 _1909_
*2022 _1910_
*2023 _1911_
*2024 _1912_
*2025 _1913_
*2026 _1914_
*2027 _1915_
*2028 _1916_
*2029 _1917_
*2030 _1918_
*2031 _1919_
*2032 _1920_
*2033 _1921_
*2034 _1922_
*2035 _1923_
*2036 _1924_
*2037 _1925_
*2038 _1926_
*2039 _1927_
*2040 _1928_
*2041 _1929_
*2042 _1930_
*2043 _1931_
*2044 _1932_
*2045 _1933_
*2046 _1934_
*2047 _1935_
*2048 _1936_
*2049 _1937_
*2050 _1938_
*2051 _1939_
*2052 _1940_
*2053 _1941_
*2054 _1942_
*2055 _1943_
*2056 _1944_
*2057 _1945_
*2058 _1946_
*2059 _1947_
*2060 _1948_
*2061 _1949_
*2062 _1950_
*2063 _1951_
*2064 _1952_
*2065 _1953_
*2066 _1954_
*2067 _1955_
*2068 _1956_
*2069 _1957_
*2070 _1958_
*2071 _1959_
*2072 _1960_
*2073 _1961_
*2074 _1962_
*2075 _1963_
*2076 _1964_
*2077 _1965_
*2078 _1966_
*2079 _1967_
*2080 _1968_
*2081 _1969_
*2082 _1970_
*2083 _1971_
*2084 _1972_
*2085 _1973_
*2086 _1974_
*2087 _1975_
*2088 _1976_
*2089 _1977_
*2090 _1978_
*2091 _1979_
*2092 _1980_
*2093 _1981_
*2094 _1982_
*2095 _1983_
*2096 _1984_
*2097 _1985_
*2098 _1986_
*2099 _1987_
*2100 _1988_
*2101 _1989_
*2102 _1990_
*2103 _1991_
*2104 _1992_
*2105 _1993_
*2106 _1994_
*2107 _1995_
*2108 _1996_
*2109 _1997_
*2110 _1998_
*2111 _1999_
*2112 _2000_
*2113 _2001_
*2114 _2002_
*2115 _2003_
*2116 _2004_
*2117 _2005_
*2118 _2006_
*2119 _2007_
*2120 _2008_
*2121 _2009_
*2122 _2010_
*2123 _2011_
*2124 _2012_
*2125 _2013_
*2126 _2014_
*2127 _2015_
*2128 _2016_
*2129 _2017_
*2130 _2018_
*2131 _2019_
*2132 _2020_
*2133 _2021_
*2134 _2022_
*2135 _2023_
*2136 _2024_
*2137 _2025_
*2138 _2026_
*2139 _2027_
*2140 _2028_
*2141 _2029_
*2142 _2030_
*2143 _2031_
*2144 _2032_
*2145 _2033_
*2146 _2034_
*2147 _2035_
*2148 _2036_
*2149 _2037_
*2150 _2038_
*2151 _2039_
*2152 _2040_
*2153 _2041_
*2154 _2042_
*2155 _2043_
*2156 _2044_
*2157 _2045_
*2158 _2046_
*2159 _2047_
*2160 _2048_
*2161 _2049_
*2162 _2050_
*2163 _2051_
*2164 _2052_
*2165 _2053_
*2166 _2054_
*2167 _2055_
*2168 _2056_
*2169 _2057_
*2170 _2058_
*2171 _2059_
*2172 _2060_
*2173 _2061_
*2174 _2062_
*2175 _2063_
*2176 _2064_
*2177 _2065_
*2178 _2066_
*2179 _2067_
*2180 _2068_
*2181 _2069_
*2182 _2070_
*2183 _2071_
*2184 _2072_
*2185 _2073_
*2186 _2074_
*2187 _2075_
*2188 _2076_
*2189 _2077_
*2190 _2078_
*2191 _2079_
*2192 _2080_
*2193 _2081_
*2194 _2082_
*2195 _2083_
*2196 _2084_
*2197 _2085_
*2198 _2086_
*2199 _2087_
*2200 _2088_
*2201 _2089_
*2202 _2090_
*2203 _2091_
*2204 clknet_0_clk
*2205 clknet_2_0__leaf_clk
*2206 clknet_2_1__leaf_clk
*2207 clknet_2_2__leaf_clk
*2208 clknet_2_3__leaf_clk
*2209 net1
*2210 net10
*2211 net100
*2212 net101
*2213 net102
*2214 net103
*2215 net104
*2216 net105
*2217 net106
*2218 net107
*2219 net108
*2220 net109
*2221 net11
*2222 net110
*2223 net111
*2224 net112
*2225 net113
*2226 net114
*2227 net115
*2228 net116
*2229 net117
*2230 net118
*2231 net119
*2232 net12
*2233 net120
*2234 net121
*2235 net122
*2236 net123
*2237 net124
*2238 net125
*2239 net126
*2240 net127
*2241 net13
*2242 net14
*2243 net15
*2244 net16
*2245 net17
*2246 net18
*2247 net19
*2248 net2
*2249 net20
*2250 net21
*2251 net22
*2252 net23
*2253 net24
*2254 net25
*2255 net26
*2256 net27
*2257 net28
*2258 net29
*2259 net3
*2260 net30
*2261 net31
*2262 net32
*2263 net33
*2264 net34
*2265 net35
*2266 net36
*2267 net37
*2268 net38
*2269 net39
*2270 net4
*2271 net40
*2272 net41
*2273 net42
*2274 net43
*2275 net44
*2276 net45
*2277 net46
*2278 net47
*2279 net48
*2280 net49
*2281 net5
*2282 net50
*2283 net51
*2284 net52
*2285 net53
*2286 net54
*2287 net55
*2288 net56
*2289 net57
*2290 net58
*2291 net59
*2292 net6
*2293 net60
*2294 net61
*2295 net62
*2296 net63
*2297 net64
*2298 net65
*2299 net66
*2300 net67
*2301 net68
*2302 net69
*2303 net7
*2304 net70
*2305 net71
*2306 net72
*2307 net73
*2308 net74
*2309 net75
*2310 net76
*2311 net77
*2312 net78
*2313 net79
*2314 net8
*2315 net80
*2316 net81
*2317 net82
*2318 net83
*2319 net84
*2320 net85
*2321 net86
*2322 net87
*2323 net88
*2324 net89
*2325 net9
*2326 net90
*2327 net91
*2328 net92
*2329 net93
*2330 net94
*2331 net95
*2332 net96
*2333 net97
*2334 net98
*2335 net99
*2336 ANTENNA_1
*2337 ANTENNA_10
*2338 ANTENNA_11
*2339 ANTENNA_12
*2340 ANTENNA_13
*2341 ANTENNA_14
*2342 ANTENNA_15
*2343 ANTENNA_16
*2344 ANTENNA_17
*2345 ANTENNA_18
*2346 ANTENNA_19
*2347 ANTENNA_2
*2348 ANTENNA_20
*2349 ANTENNA_21
*2350 ANTENNA_22
*2351 ANTENNA_23
*2352 ANTENNA_24
*2353 ANTENNA_25
*2354 ANTENNA_26
*2355 ANTENNA_27
*2356 ANTENNA_28
*2357 ANTENNA_29
*2358 ANTENNA_3
*2359 ANTENNA_30
*2360 ANTENNA_31