* NGSPICE file created from alu32.ext - technology: sky130A

* Black-box entry subcircuit for sky130_fd_sc_hd__fill_2 abstract view
.subckt sky130_fd_sc_hd__fill_2 VGND VNB VPB VPWR
.ends

* Black-box entry subcircuit for sky130_fd_sc_hd__fill_1 abstract view
.subckt sky130_fd_sc_hd__fill_1 VGND VNB VPB VPWR
.ends

* Black-box entry subcircuit for sky130_fd_sc_hd__decap_3 abstract view
.subckt sky130_fd_sc_hd__decap_3 VGND VNB VPB VPWR
.ends

* Black-box entry subcircuit for sky130_fd_sc_hd__o21a_2 abstract view
.subckt sky130_fd_sc_hd__o21a_2 A1 A2 B1 VGND VNB VPB VPWR X
.ends

* Black-box entry subcircuit for sky130_fd_sc_hd__or3b_2 abstract view
.subckt sky130_fd_sc_hd__or3b_2 A B C_N VGND VNB VPB VPWR X
.ends

* Black-box entry subcircuit for sky130_fd_sc_hd__a21o_2 abstract view
.subckt sky130_fd_sc_hd__a21o_2 A1 A2 B1 VGND VNB VPB VPWR X
.ends

* Black-box entry subcircuit for sky130_fd_sc_hd__xnor2_2 abstract view
.subckt sky130_fd_sc_hd__xnor2_2 A B VGND VNB VPB VPWR Y
.ends

* Black-box entry subcircuit for sky130_fd_sc_hd__nand2_2 abstract view
.subckt sky130_fd_sc_hd__nand2_2 A B VGND VNB VPB VPWR Y
.ends

* Black-box entry subcircuit for sky130_fd_sc_hd__inv_2 abstract view
.subckt sky130_fd_sc_hd__inv_2 A VGND VNB VPB VPWR Y
.ends

* Black-box entry subcircuit for sky130_fd_sc_hd__tapvpwrvgnd_1 abstract view
.subckt sky130_fd_sc_hd__tapvpwrvgnd_1 VGND VPWR
.ends

* Black-box entry subcircuit for sky130_fd_sc_hd__a32o_2 abstract view
.subckt sky130_fd_sc_hd__a32o_2 A1 A2 A3 B1 B2 VGND VNB VPB VPWR X
.ends

* Black-box entry subcircuit for sky130_fd_sc_hd__a22oi_2 abstract view
.subckt sky130_fd_sc_hd__a22oi_2 A1 A2 B1 B2 VGND VNB VPB VPWR Y
.ends

* Black-box entry subcircuit for sky130_fd_sc_hd__and2b_2 abstract view
.subckt sky130_fd_sc_hd__and2b_2 A_N B VGND VNB VPB VPWR X
.ends

* Black-box entry subcircuit for sky130_fd_sc_hd__or3b_4 abstract view
.subckt sky130_fd_sc_hd__or3b_4 A B C_N VGND VNB VPB VPWR X
.ends

* Black-box entry subcircuit for sky130_fd_sc_hd__o21ai_2 abstract view
.subckt sky130_fd_sc_hd__o21ai_2 A1 A2 B1 VGND VNB VPB VPWR Y
.ends

* Black-box entry subcircuit for sky130_fd_sc_hd__or3_2 abstract view
.subckt sky130_fd_sc_hd__or3_2 A B C VGND VNB VPB VPWR X
.ends

* Black-box entry subcircuit for sky130_fd_sc_hd__nand3_2 abstract view
.subckt sky130_fd_sc_hd__nand3_2 A B C VGND VNB VPB VPWR Y
.ends

* Black-box entry subcircuit for sky130_fd_sc_hd__nor2_2 abstract view
.subckt sky130_fd_sc_hd__nor2_2 A B VGND VNB VPB VPWR Y
.ends

* Black-box entry subcircuit for sky130_fd_sc_hd__mux4_2 abstract view
.subckt sky130_fd_sc_hd__mux4_2 A0 A1 A2 A3 S0 S1 VGND VNB VPB VPWR X
.ends

* Black-box entry subcircuit for sky130_fd_sc_hd__and3_2 abstract view
.subckt sky130_fd_sc_hd__and3_2 A B C VGND VNB VPB VPWR X
.ends

* Black-box entry subcircuit for sky130_fd_sc_hd__o211a_2 abstract view
.subckt sky130_fd_sc_hd__o211a_2 A1 A2 B1 C1 VGND VNB VPB VPWR X
.ends

* Black-box entry subcircuit for sky130_fd_sc_hd__clkdlybuf4s25_1 abstract view
.subckt sky130_fd_sc_hd__clkdlybuf4s25_1 A VGND VNB VPB VPWR X
.ends

* Black-box entry subcircuit for sky130_fd_sc_hd__a21oi_2 abstract view
.subckt sky130_fd_sc_hd__a21oi_2 A1 A2 B1 VGND VNB VPB VPWR Y
.ends

* Black-box entry subcircuit for sky130_fd_sc_hd__a221o_2 abstract view
.subckt sky130_fd_sc_hd__a221o_2 A1 A2 B1 B2 C1 VGND VNB VPB VPWR X
.ends

* Black-box entry subcircuit for sky130_fd_sc_hd__clkbuf_2 abstract view
.subckt sky130_fd_sc_hd__clkbuf_2 A VGND VNB VPB VPWR X
.ends

* Black-box entry subcircuit for sky130_fd_sc_hd__a22o_2 abstract view
.subckt sky130_fd_sc_hd__a22o_2 A1 A2 B1 B2 VGND VNB VPB VPWR X
.ends

* Black-box entry subcircuit for sky130_fd_sc_hd__a211o_2 abstract view
.subckt sky130_fd_sc_hd__a211o_2 A1 A2 B1 C1 VGND VNB VPB VPWR X
.ends

* Black-box entry subcircuit for sky130_fd_sc_hd__o211ai_2 abstract view
.subckt sky130_fd_sc_hd__o211ai_2 A1 A2 B1 C1 VGND VNB VPB VPWR Y
.ends

* Black-box entry subcircuit for sky130_fd_sc_hd__and4_2 abstract view
.subckt sky130_fd_sc_hd__and4_2 A B C D VGND VNB VPB VPWR X
.ends

* Black-box entry subcircuit for sky130_fd_sc_hd__o21ba_2 abstract view
.subckt sky130_fd_sc_hd__o21ba_2 A1 A2 B1_N VGND VNB VPB VPWR X
.ends

* Black-box entry subcircuit for sky130_fd_sc_hd__o2bb2a_2 abstract view
.subckt sky130_fd_sc_hd__o2bb2a_2 A1_N A2_N B1 B2 VGND VNB VPB VPWR X
.ends

* Black-box entry subcircuit for sky130_fd_sc_hd__and2_4 abstract view
.subckt sky130_fd_sc_hd__and2_4 A B VGND VNB VPB VPWR X
.ends

* Black-box entry subcircuit for sky130_fd_sc_hd__xor2_2 abstract view
.subckt sky130_fd_sc_hd__xor2_2 A B VGND VNB VPB VPWR X
.ends

* Black-box entry subcircuit for sky130_fd_sc_hd__and4bb_2 abstract view
.subckt sky130_fd_sc_hd__and4bb_2 A_N B_N C D VGND VNB VPB VPWR X
.ends

* Black-box entry subcircuit for sky130_fd_sc_hd__or2_2 abstract view
.subckt sky130_fd_sc_hd__or2_2 A B VGND VNB VPB VPWR X
.ends

* Black-box entry subcircuit for sky130_fd_sc_hd__nand4_2 abstract view
.subckt sky130_fd_sc_hd__nand4_2 A B C D VGND VNB VPB VPWR Y
.ends

* Black-box entry subcircuit for sky130_fd_sc_hd__a31o_2 abstract view
.subckt sky130_fd_sc_hd__a31o_2 A1 A2 A3 B1 VGND VNB VPB VPWR X
.ends

* Black-box entry subcircuit for sky130_fd_sc_hd__a31oi_2 abstract view
.subckt sky130_fd_sc_hd__a31oi_2 A1 A2 A3 B1 VGND VNB VPB VPWR Y
.ends

* Black-box entry subcircuit for sky130_fd_sc_hd__clkbuf_4 abstract view
.subckt sky130_fd_sc_hd__clkbuf_4 A VGND VNB VPB VPWR X
.ends

* Black-box entry subcircuit for sky130_fd_sc_hd__a21o_4 abstract view
.subckt sky130_fd_sc_hd__a21o_4 A1 A2 B1 VGND VNB VPB VPWR X
.ends

* Black-box entry subcircuit for sky130_fd_sc_hd__or3_4 abstract view
.subckt sky130_fd_sc_hd__or3_4 A B C VGND VNB VPB VPWR X
.ends

* Black-box entry subcircuit for sky130_fd_sc_hd__diode_2 abstract view
.subckt sky130_fd_sc_hd__diode_2 DIODE VGND VNB VPB VPWR
.ends

* Black-box entry subcircuit for sky130_fd_sc_hd__or4b_2 abstract view
.subckt sky130_fd_sc_hd__or4b_2 A B C D_N VGND VNB VPB VPWR X
.ends

* Black-box entry subcircuit for sky130_fd_sc_hd__a21bo_2 abstract view
.subckt sky130_fd_sc_hd__a21bo_2 A1 A2 B1_N VGND VNB VPB VPWR X
.ends

* Black-box entry subcircuit for sky130_fd_sc_hd__nor2_4 abstract view
.subckt sky130_fd_sc_hd__nor2_4 A B VGND VNB VPB VPWR Y
.ends

* Black-box entry subcircuit for sky130_fd_sc_hd__buf_4 abstract view
.subckt sky130_fd_sc_hd__buf_4 A VGND VNB VPB VPWR X
.ends

* Black-box entry subcircuit for sky130_fd_sc_hd__and2_2 abstract view
.subckt sky130_fd_sc_hd__and2_2 A B VGND VNB VPB VPWR X
.ends

* Black-box entry subcircuit for sky130_fd_sc_hd__buf_2 abstract view
.subckt sky130_fd_sc_hd__buf_2 A VGND VNB VPB VPWR X
.ends

* Black-box entry subcircuit for sky130_fd_sc_hd__dlymetal6s4s_1 abstract view
.subckt sky130_fd_sc_hd__dlymetal6s4s_1 A VGND VNB VPB VPWR X
.ends

* Black-box entry subcircuit for sky130_fd_sc_hd__nand2b_2 abstract view
.subckt sky130_fd_sc_hd__nand2b_2 A_N B VGND VNB VPB VPWR Y
.ends

* Black-box entry subcircuit for sky130_fd_sc_hd__xnor2_4 abstract view
.subckt sky130_fd_sc_hd__xnor2_4 A B VGND VNB VPB VPWR Y
.ends

* Black-box entry subcircuit for sky130_fd_sc_hd__buf_6 abstract view
.subckt sky130_fd_sc_hd__buf_6 A VGND VNB VPB VPWR X
.ends

* Black-box entry subcircuit for sky130_fd_sc_hd__and3_4 abstract view
.subckt sky130_fd_sc_hd__and3_4 A B C VGND VNB VPB VPWR X
.ends

* Black-box entry subcircuit for sky130_fd_sc_hd__a2bb2o_2 abstract view
.subckt sky130_fd_sc_hd__a2bb2o_2 A1_N A2_N B1 B2 VGND VNB VPB VPWR X
.ends

* Black-box entry subcircuit for sky130_fd_sc_hd__and3b_2 abstract view
.subckt sky130_fd_sc_hd__and3b_2 A_N B C VGND VNB VPB VPWR X
.ends

* Black-box entry subcircuit for sky130_fd_sc_hd__a211oi_2 abstract view
.subckt sky130_fd_sc_hd__a211oi_2 A1 A2 B1 C1 VGND VNB VPB VPWR Y
.ends

* Black-box entry subcircuit for sky130_fd_sc_hd__dlymetal6s2s_1 abstract view
.subckt sky130_fd_sc_hd__dlymetal6s2s_1 A VGND VNB VPB VPWR X
.ends

* Black-box entry subcircuit for sky130_fd_sc_hd__o221a_2 abstract view
.subckt sky130_fd_sc_hd__o221a_2 A1 A2 B1 B2 C1 VGND VNB VPB VPWR X
.ends

* Black-box entry subcircuit for sky130_fd_sc_hd__mux2_1 abstract view
.subckt sky130_fd_sc_hd__mux2_1 A0 A1 S VGND VNB VPB VPWR X
.ends

* Black-box entry subcircuit for sky130_fd_sc_hd__or4_2 abstract view
.subckt sky130_fd_sc_hd__or4_2 A B C D VGND VNB VPB VPWR X
.ends

* Black-box entry subcircuit for sky130_fd_sc_hd__o21bai_2 abstract view
.subckt sky130_fd_sc_hd__o21bai_2 A1 A2 B1_N VGND VNB VPB VPWR Y
.ends

* Black-box entry subcircuit for sky130_fd_sc_hd__a21boi_2 abstract view
.subckt sky130_fd_sc_hd__a21boi_2 A1 A2 B1_N VGND VNB VPB VPWR Y
.ends

* Black-box entry subcircuit for sky130_fd_sc_hd__nor4_4 abstract view
.subckt sky130_fd_sc_hd__nor4_4 A B C D VGND VNB VPB VPWR Y
.ends

* Black-box entry subcircuit for sky130_fd_sc_hd__or4_4 abstract view
.subckt sky130_fd_sc_hd__or4_4 A B C D VGND VNB VPB VPWR X
.ends

* Black-box entry subcircuit for sky130_fd_sc_hd__o22a_2 abstract view
.subckt sky130_fd_sc_hd__o22a_2 A1 A2 B1 B2 VGND VNB VPB VPWR X
.ends

* Black-box entry subcircuit for sky130_fd_sc_hd__nor3_4 abstract view
.subckt sky130_fd_sc_hd__nor3_4 A B C VGND VNB VPB VPWR Y
.ends

* Black-box entry subcircuit for sky130_fd_sc_hd__and4b_2 abstract view
.subckt sky130_fd_sc_hd__and4b_2 A_N B C D VGND VNB VPB VPWR X
.ends

* Black-box entry subcircuit for sky130_fd_sc_hd__a21boi_4 abstract view
.subckt sky130_fd_sc_hd__a21boi_4 A1 A2 B1_N VGND VNB VPB VPWR Y
.ends

* Black-box entry subcircuit for sky130_fd_sc_hd__o41a_2 abstract view
.subckt sky130_fd_sc_hd__o41a_2 A1 A2 A3 A4 B1 VGND VNB VPB VPWR X
.ends

* Black-box entry subcircuit for sky130_fd_sc_hd__o32a_2 abstract view
.subckt sky130_fd_sc_hd__o32a_2 A1 A2 A3 B1 B2 VGND VNB VPB VPWR X
.ends

* Black-box entry subcircuit for sky130_fd_sc_hd__nand3b_2 abstract view
.subckt sky130_fd_sc_hd__nand3b_2 A_N B C VGND VNB VPB VPWR Y
.ends

* Black-box entry subcircuit for sky130_fd_sc_hd__o31ai_2 abstract view
.subckt sky130_fd_sc_hd__o31ai_2 A1 A2 A3 B1 VGND VNB VPB VPWR Y
.ends

* Black-box entry subcircuit for sky130_fd_sc_hd__nor3_2 abstract view
.subckt sky130_fd_sc_hd__nor3_2 A B C VGND VNB VPB VPWR Y
.ends

* Black-box entry subcircuit for sky130_fd_sc_hd__or2_4 abstract view
.subckt sky130_fd_sc_hd__or2_4 A B VGND VNB VPB VPWR X
.ends

* Black-box entry subcircuit for sky130_fd_sc_hd__a311oi_2 abstract view
.subckt sky130_fd_sc_hd__a311oi_2 A1 A2 A3 B1 C1 VGND VNB VPB VPWR Y
.ends

* Black-box entry subcircuit for sky130_fd_sc_hd__a21bo_4 abstract view
.subckt sky130_fd_sc_hd__a21bo_4 A1 A2 B1_N VGND VNB VPB VPWR X
.ends

* Black-box entry subcircuit for sky130_fd_sc_hd__a21oi_4 abstract view
.subckt sky130_fd_sc_hd__a21oi_4 A1 A2 B1 VGND VNB VPB VPWR Y
.ends

* Black-box entry subcircuit for sky130_fd_sc_hd__and4_4 abstract view
.subckt sky130_fd_sc_hd__and4_4 A B C D VGND VNB VPB VPWR X
.ends

* Black-box entry subcircuit for sky130_fd_sc_hd__nor3b_4 abstract view
.subckt sky130_fd_sc_hd__nor3b_4 A B C_N VGND VNB VPB VPWR Y
.ends

* Black-box entry subcircuit for sky130_fd_sc_hd__a211o_4 abstract view
.subckt sky130_fd_sc_hd__a211o_4 A1 A2 B1 C1 VGND VNB VPB VPWR X
.ends

* Black-box entry subcircuit for sky130_fd_sc_hd__a311o_2 abstract view
.subckt sky130_fd_sc_hd__a311o_2 A1 A2 A3 B1 C1 VGND VNB VPB VPWR X
.ends

* Black-box entry subcircuit for sky130_fd_sc_hd__o22ai_2 abstract view
.subckt sky130_fd_sc_hd__o22ai_2 A1 A2 B1 B2 VGND VNB VPB VPWR Y
.ends

* Black-box entry subcircuit for sky130_fd_sc_hd__a22o_4 abstract view
.subckt sky130_fd_sc_hd__a22o_4 A1 A2 B1 B2 VGND VNB VPB VPWR X
.ends

* Black-box entry subcircuit for sky130_fd_sc_hd__o211a_4 abstract view
.subckt sky130_fd_sc_hd__o211a_4 A1 A2 B1 C1 VGND VNB VPB VPWR X
.ends

* Black-box entry subcircuit for sky130_fd_sc_hd__a2111o_2 abstract view
.subckt sky130_fd_sc_hd__a2111o_2 A1 A2 B1 C1 D1 VGND VNB VPB VPWR X
.ends

* Black-box entry subcircuit for sky130_fd_sc_hd__nor4_1 abstract view
.subckt sky130_fd_sc_hd__nor4_1 A B C D VGND VNB VPB VPWR Y
.ends

* Black-box entry subcircuit for sky130_fd_sc_hd__dlygate4sd1_1 abstract view
.subckt sky130_fd_sc_hd__dlygate4sd1_1 A VGND VNB VPB VPWR X
.ends

* Black-box entry subcircuit for sky130_fd_sc_hd__o21ai_4 abstract view
.subckt sky130_fd_sc_hd__o21ai_4 A1 A2 B1 VGND VNB VPB VPWR Y
.ends

* Black-box entry subcircuit for sky130_fd_sc_hd__a31o_4 abstract view
.subckt sky130_fd_sc_hd__a31o_4 A1 A2 A3 B1 VGND VNB VPB VPWR X
.ends

* Black-box entry subcircuit for sky130_fd_sc_hd__a2bb2o_4 abstract view
.subckt sky130_fd_sc_hd__a2bb2o_4 A1_N A2_N B1 B2 VGND VNB VPB VPWR X
.ends

* Black-box entry subcircuit for sky130_fd_sc_hd__o31a_2 abstract view
.subckt sky130_fd_sc_hd__o31a_2 A1 A2 A3 B1 VGND VNB VPB VPWR X
.ends

* Black-box entry subcircuit for sky130_fd_sc_hd__o31ai_4 abstract view
.subckt sky130_fd_sc_hd__o31ai_4 A1 A2 A3 B1 VGND VNB VPB VPWR Y
.ends

* Black-box entry subcircuit for sky130_fd_sc_hd__nand3_4 abstract view
.subckt sky130_fd_sc_hd__nand3_4 A B C VGND VNB VPB VPWR Y
.ends

* Black-box entry subcircuit for sky130_fd_sc_hd__a211oi_4 abstract view
.subckt sky130_fd_sc_hd__a211oi_4 A1 A2 B1 C1 VGND VNB VPB VPWR Y
.ends

* Black-box entry subcircuit for sky130_fd_sc_hd__o211ai_4 abstract view
.subckt sky130_fd_sc_hd__o211ai_4 A1 A2 B1 C1 VGND VNB VPB VPWR Y
.ends

* Black-box entry subcircuit for sky130_fd_sc_hd__nor4_2 abstract view
.subckt sky130_fd_sc_hd__nor4_2 A B C D VGND VNB VPB VPWR Y
.ends

* Black-box entry subcircuit for sky130_fd_sc_hd__nand2b_4 abstract view
.subckt sky130_fd_sc_hd__nand2b_4 A_N B VGND VNB VPB VPWR Y
.ends

* Black-box entry subcircuit for sky130_fd_sc_hd__o221ai_2 abstract view
.subckt sky130_fd_sc_hd__o221ai_2 A1 A2 B1 B2 C1 VGND VNB VPB VPWR Y
.ends

* Black-box entry subcircuit for sky130_fd_sc_hd__o311a_2 abstract view
.subckt sky130_fd_sc_hd__o311a_2 A1 A2 A3 B1 C1 VGND VNB VPB VPWR X
.ends

* Black-box entry subcircuit for sky130_fd_sc_hd__buf_8 abstract view
.subckt sky130_fd_sc_hd__buf_8 A VGND VNB VPB VPWR X
.ends

* Black-box entry subcircuit for sky130_fd_sc_hd__nor3b_2 abstract view
.subckt sky130_fd_sc_hd__nor3b_2 A B C_N VGND VNB VPB VPWR Y
.ends

* Black-box entry subcircuit for sky130_fd_sc_hd__a32oi_2 abstract view
.subckt sky130_fd_sc_hd__a32oi_2 A1 A2 A3 B1 B2 VGND VNB VPB VPWR Y
.ends

* Black-box entry subcircuit for sky130_fd_sc_hd__or4b_4 abstract view
.subckt sky130_fd_sc_hd__or4b_4 A B C D_N VGND VNB VPB VPWR X
.ends

* Black-box entry subcircuit for sky130_fd_sc_hd__buf_1 abstract view
.subckt sky130_fd_sc_hd__buf_1 A VGND VNB VPB VPWR X
.ends

* Black-box entry subcircuit for sky130_fd_sc_hd__a41o_2 abstract view
.subckt sky130_fd_sc_hd__a41o_2 A1 A2 A3 A4 B1 VGND VNB VPB VPWR X
.ends

* Black-box entry subcircuit for sky130_fd_sc_hd__mux2_4 abstract view
.subckt sky130_fd_sc_hd__mux2_4 A0 A1 S VGND VNB VPB VPWR X
.ends

* Black-box entry subcircuit for sky130_fd_sc_hd__o311ai_1 abstract view
.subckt sky130_fd_sc_hd__o311ai_1 A1 A2 A3 B1 C1 VGND VNB VPB VPWR Y
.ends

* Black-box entry subcircuit for sky130_fd_sc_hd__o21ba_4 abstract view
.subckt sky130_fd_sc_hd__o21ba_4 A1 A2 B1_N VGND VNB VPB VPWR X
.ends

* Black-box entry subcircuit for sky130_fd_sc_hd__nor4b_2 abstract view
.subckt sky130_fd_sc_hd__nor4b_2 A B C D_N VGND VNB VPB VPWR Y
.ends

* Black-box entry subcircuit for sky130_fd_sc_hd__or4bb_4 abstract view
.subckt sky130_fd_sc_hd__or4bb_4 A B C_N D_N VGND VNB VPB VPWR X
.ends

* Black-box entry subcircuit for sky130_fd_sc_hd__nand3b_4 abstract view
.subckt sky130_fd_sc_hd__nand3b_4 A_N B C VGND VNB VPB VPWR Y
.ends

* Black-box entry subcircuit for sky130_fd_sc_hd__clkbuf_1 abstract view
.subckt sky130_fd_sc_hd__clkbuf_1 A VGND VNB VPB VPWR X
.ends

* Black-box entry subcircuit for sky130_fd_sc_hd__a41oi_4 abstract view
.subckt sky130_fd_sc_hd__a41oi_4 A1 A2 A3 A4 B1 VGND VNB VPB VPWR Y
.ends

* Black-box entry subcircuit for sky130_fd_sc_hd__xor2_4 abstract view
.subckt sky130_fd_sc_hd__xor2_4 A B VGND VNB VPB VPWR X
.ends

* Black-box entry subcircuit for sky130_fd_sc_hd__or4bb_2 abstract view
.subckt sky130_fd_sc_hd__or4bb_2 A B C_N D_N VGND VNB VPB VPWR X
.ends

* Black-box entry subcircuit for sky130_fd_sc_hd__nand4_4 abstract view
.subckt sky130_fd_sc_hd__nand4_4 A B C D VGND VNB VPB VPWR Y
.ends

.subckt alu32 A[0] A[10] A[11] A[12] A[13] A[14] A[15] A[16] A[17] A[18] A[19] A[1]
+ A[20] A[21] A[22] A[23] A[24] A[25] A[26] A[27] A[28] A[29] A[2] A[30] A[31] A[3]
+ A[4] A[5] A[6] A[7] A[8] A[9] B[0] B[10] B[11] B[12] B[13] B[14] B[15] B[16] B[17]
+ B[18] B[19] B[1] B[20] B[21] B[22] B[23] B[24] B[25] B[26] B[27] B[28] B[29] B[2]
+ B[30] B[31] B[3] B[4] B[5] B[6] B[7] B[8] B[9] VGND VPWR carry opcode[0] opcode[1]
+ opcode[2] opcode[3] overflow result[0] result[10] result[11] result[12] result[13]
+ result[14] result[15] result[16] result[17] result[18] result[19] result[1] result[20]
+ result[21] result[22] result[23] result[24] result[25] result[26] result[27] result[28]
+ result[29] result[2] result[30] result[31] result[3] result[4] result[5] result[6]
+ result[7] result[8] result[9] zero
XFILLER_39_222 VGND VGND VPWR VPWR sky130_fd_sc_hd__fill_2
XFILLER_79_391 VGND VGND VPWR VPWR sky130_fd_sc_hd__fill_1
XFILLER_27_417 VGND VGND VPWR VPWR sky130_fd_sc_hd__decap_3
XFILLER_39_266 VGND VGND VPWR VPWR sky130_fd_sc_hd__decap_3
XFILLER_54_203 VGND VGND VPWR VPWR sky130_fd_sc_hd__decap_3
XFILLER_82_501 VGND VGND VPWR VPWR sky130_fd_sc_hd__fill_2
X_6914_ _6275_/B _6978_/B1 _6913_/X VGND VGND VPWR VPWR _6914_/X sky130_fd_sc_hd__o21a_2
XFILLER_82_589 VGND VGND VPWR VPWR sky130_fd_sc_hd__decap_3
XFILLER_52_29 VGND VGND VPWR VPWR sky130_fd_sc_hd__decap_3
X_6845_ _6845_/A _6930_/A _6843_/X VGND VGND VPWR VPWR _6845_/X sky130_fd_sc_hd__or3b_2
XFILLER_10_306 VGND VGND VPWR VPWR sky130_fd_sc_hd__fill_2
X_6776_ _6775_/B _6775_/C _6775_/A VGND VGND VPWR VPWR _6776_/X sky130_fd_sc_hd__a21o_2
X_3988_ _3988_/A _3988_/B VGND VGND VPWR VPWR _4029_/A sky130_fd_sc_hd__xnor2_2
XFILLER_22_177 VGND VGND VPWR VPWR sky130_fd_sc_hd__fill_2
XFILLER_50_486 VGND VGND VPWR VPWR sky130_fd_sc_hd__decap_3
X_5727_ _5779_/A _5727_/B VGND VGND VPWR VPWR _5761_/A sky130_fd_sc_hd__nand2_2
X_5658_ _5711_/A VGND VGND VPWR VPWR _5678_/B sky130_fd_sc_hd__inv_2
XTAP_TAPCELL_ROW_75_1008 VGND VPWR sky130_fd_sc_hd__tapvpwrvgnd_1
X_5589_ _5588_/A _5778_/C _5588_/D _6122_/A _6120_/A VGND VGND VPWR VPWR _5591_/B
+ sky130_fd_sc_hd__a32o_2
X_4609_ _4607_/A _4607_/C _4607_/D _4607_/B VGND VGND VPWR VPWR _4610_/C sky130_fd_sc_hd__a22oi_2
XFILLER_89_122 VGND VGND VPWR VPWR sky130_fd_sc_hd__fill_2
XFILLER_89_155 VGND VGND VPWR VPWR sky130_fd_sc_hd__decap_3
XFILLER_77_317 VGND VGND VPWR VPWR sky130_fd_sc_hd__decap_3
XFILLER_58_531 VGND VGND VPWR VPWR sky130_fd_sc_hd__fill_1
XFILLER_92_309 VGND VGND VPWR VPWR sky130_fd_sc_hd__decap_3
XFILLER_45_225 VGND VGND VPWR VPWR sky130_fd_sc_hd__fill_1
XFILLER_58_597 VGND VGND VPWR VPWR sky130_fd_sc_hd__fill_1
XFILLER_73_534 VGND VGND VPWR VPWR sky130_fd_sc_hd__fill_2
XFILLER_85_372 VGND VGND VPWR VPWR sky130_fd_sc_hd__decap_3
XTAP_TAPCELL_ROW_86_1115 VGND VPWR sky130_fd_sc_hd__tapvpwrvgnd_1
XFILLER_60_206 VGND VGND VPWR VPWR sky130_fd_sc_hd__fill_1
XFILLER_60_217 VGND VGND VPWR VPWR sky130_fd_sc_hd__decap_3
XFILLER_60_228 VGND VGND VPWR VPWR sky130_fd_sc_hd__decap_3
XFILLER_41_431 VGND VGND VPWR VPWR sky130_fd_sc_hd__decap_3
XFILLER_53_291 VGND VGND VPWR VPWR sky130_fd_sc_hd__decap_3
XFILLER_13_199 VGND VGND VPWR VPWR sky130_fd_sc_hd__decap_3
XFILLER_42_95 VGND VGND VPWR VPWR sky130_fd_sc_hd__fill_1
XTAP_TAPCELL_ROW_11_334 VGND VPWR sky130_fd_sc_hd__tapvpwrvgnd_1
XFILLER_5_321 VGND VGND VPWR VPWR sky130_fd_sc_hd__decap_3
XTAP_TAPCELL_ROW_97_1233 VGND VPWR sky130_fd_sc_hd__tapvpwrvgnd_1
XFILLER_5_376 VGND VGND VPWR VPWR sky130_fd_sc_hd__decap_3
XFILLER_68_328 VGND VGND VPWR VPWR sky130_fd_sc_hd__fill_1
XFILLER_1_593 VGND VGND VPWR VPWR sky130_fd_sc_hd__decap_3
XFILLER_49_531 VGND VGND VPWR VPWR sky130_fd_sc_hd__decap_3
XFILLER_64_501 VGND VGND VPWR VPWR sky130_fd_sc_hd__decap_3
XFILLER_67_70 VGND VGND VPWR VPWR sky130_fd_sc_hd__decap_3
XFILLER_49_597 VGND VGND VPWR VPWR sky130_fd_sc_hd__fill_1
XFILLER_76_394 VGND VGND VPWR VPWR sky130_fd_sc_hd__decap_3
XTAP_TAPCELL_ROW_47_710 VGND VPWR sky130_fd_sc_hd__tapvpwrvgnd_1
XTAP_TAPCELL_ROW_19_412 VGND VPWR sky130_fd_sc_hd__tapvpwrvgnd_1
XFILLER_51_217 VGND VGND VPWR VPWR sky130_fd_sc_hd__decap_3
XFILLER_51_228 VGND VGND VPWR VPWR sky130_fd_sc_hd__decap_3
XFILLER_64_589 VGND VGND VPWR VPWR sky130_fd_sc_hd__decap_3
XFILLER_91_364 VGND VGND VPWR VPWR sky130_fd_sc_hd__decap_3
X_4960_ _4957_/X _4960_/B VGND VGND VPWR VPWR _5041_/B sky130_fd_sc_hd__and2b_2
XFILLER_17_494 VGND VGND VPWR VPWR sky130_fd_sc_hd__decap_3
XFILLER_32_431 VGND VGND VPWR VPWR sky130_fd_sc_hd__decap_3
XFILLER_44_280 VGND VGND VPWR VPWR sky130_fd_sc_hd__decap_3
X_4891_ _5885_/B _4891_/B _4855_/B VGND VGND VPWR VPWR _4911_/A sky130_fd_sc_hd__or3b_4
X_3911_ _3909_/X _3911_/B VGND VGND VPWR VPWR _3912_/B sky130_fd_sc_hd__and2b_2
X_6630_ _6236_/B _6781_/A2 _6629_/X VGND VGND VPWR VPWR _6630_/Y sky130_fd_sc_hd__o21ai_2
X_3842_ _3842_/A _3842_/B _3842_/C VGND VGND VPWR VPWR _3952_/B sky130_fd_sc_hd__or3_2
X_6561_ _6561_/A _6561_/B _6561_/C VGND VGND VPWR VPWR _6986_/A sky130_fd_sc_hd__nand3_2
X_5512_ _5511_/B _5511_/C _5511_/A VGND VGND VPWR VPWR _5512_/Y sky130_fd_sc_hd__o21ai_2
X_3773_ _3773_/A _4180_/A VGND VGND VPWR VPWR _3775_/B sky130_fd_sc_hd__nor2_2
X_6492_ _4176_/A _3872_/A _3868_/A _3867_/A _6492_/S0 _3868_/B VGND VGND VPWR VPWR
+ _6493_/B sky130_fd_sc_hd__mux4_2
X_5443_ _5443_/A _5443_/B VGND VGND VPWR VPWR _5445_/B sky130_fd_sc_hd__nand2_2
X_5374_ _5374_/A _5487_/B _5375_/B VGND VGND VPWR VPWR _5374_/X sky130_fd_sc_hd__and3_2
X_4325_ _4321_/A _4319_/X _3779_/A _3780_/Y VGND VGND VPWR VPWR _4325_/X sky130_fd_sc_hd__o211a_2
XFILLER_59_328 VGND VGND VPWR VPWR sky130_fd_sc_hd__decap_3
XFILLER_86_103 VGND VGND VPWR VPWR sky130_fd_sc_hd__decap_3
Xfanout127 _6296_/Y VGND VGND VPWR VPWR _6960_/A sky130_fd_sc_hd__clkdlybuf4s25_1
Xfanout138 _6978_/A2 VGND VGND VPWR VPWR _6927_/B1 sky130_fd_sc_hd__clkdlybuf4s25_1
XFILLER_99_464 VGND VGND VPWR VPWR sky130_fd_sc_hd__decap_3
Xfanout149 _6061_/Y VGND VGND VPWR VPWR _6982_/A2 sky130_fd_sc_hd__clkdlybuf4s25_1
X_4256_ _4192_/A _4192_/B _4192_/C VGND VGND VPWR VPWR _4256_/Y sky130_fd_sc_hd__a21oi_2
XFILLER_74_309 VGND VGND VPWR VPWR sky130_fd_sc_hd__decap_3
X_4187_ _4432_/A _4568_/B _4187_/C VGND VGND VPWR VPWR _4304_/A sky130_fd_sc_hd__and3_2
XFILLER_27_225 VGND VGND VPWR VPWR sky130_fd_sc_hd__decap_3
XFILLER_94_180 VGND VGND VPWR VPWR sky130_fd_sc_hd__decap_3
XFILLER_15_409 VGND VGND VPWR VPWR sky130_fd_sc_hd__decap_3
XFILLER_55_545 VGND VGND VPWR VPWR sky130_fd_sc_hd__decap_3
XFILLER_55_567 VGND VGND VPWR VPWR sky130_fd_sc_hd__fill_2
XFILLER_27_269 VGND VGND VPWR VPWR sky130_fd_sc_hd__decap_3
XFILLER_42_206 VGND VGND VPWR VPWR sky130_fd_sc_hd__decap_3
XFILLER_55_589 VGND VGND VPWR VPWR sky130_fd_sc_hd__decap_3
XFILLER_70_515 VGND VGND VPWR VPWR sky130_fd_sc_hd__decap_3
XFILLER_42_239 VGND VGND VPWR VPWR sky130_fd_sc_hd__decap_3
XFILLER_70_559 VGND VGND VPWR VPWR sky130_fd_sc_hd__decap_3
X_6828_ _6266_/C _6339_/Y _6363_/Y _6557_/X _6827_/Y VGND VGND VPWR VPWR _6834_/B
+ sky130_fd_sc_hd__a221o_2
XTAP_TAPCELL_ROW_81_1067 VGND VPWR sky130_fd_sc_hd__tapvpwrvgnd_1
XFILLER_23_486 VGND VGND VPWR VPWR sky130_fd_sc_hd__fill_1
XFILLER_50_283 VGND VGND VPWR VPWR sky130_fd_sc_hd__decap_3
XFILLER_10_147 VGND VGND VPWR VPWR sky130_fd_sc_hd__fill_2
XFILLER_10_158 VGND VGND VPWR VPWR sky130_fd_sc_hd__decap_3
X_6759_ _6758_/A _6758_/B _6758_/C VGND VGND VPWR VPWR _6759_/X sky130_fd_sc_hd__a21o_2
XFILLER_12_32 VGND VGND VPWR VPWR sky130_fd_sc_hd__decap_3
XFILLER_2_302 VGND VGND VPWR VPWR sky130_fd_sc_hd__decap_3
XFILLER_2_335 VGND VGND VPWR VPWR sky130_fd_sc_hd__decap_3
XFILLER_88_47 VGND VGND VPWR VPWR sky130_fd_sc_hd__fill_1
XTAP_TAPCELL_ROW_92_1185 VGND VPWR sky130_fd_sc_hd__tapvpwrvgnd_1
XFILLER_77_136 VGND VGND VPWR VPWR sky130_fd_sc_hd__decap_3
Xfanout650 input11/X VGND VGND VPWR VPWR _4165_/A sky130_fd_sc_hd__clkbuf_2
XFILLER_65_309 VGND VGND VPWR VPWR sky130_fd_sc_hd__decap_3
XFILLER_77_158 VGND VGND VPWR VPWR sky130_fd_sc_hd__decap_3
XFILLER_100_480 VGND VGND VPWR VPWR sky130_fd_sc_hd__decap_3
XFILLER_18_225 VGND VGND VPWR VPWR sky130_fd_sc_hd__fill_2
XFILLER_46_523 VGND VGND VPWR VPWR sky130_fd_sc_hd__decap_3
XFILLER_58_383 VGND VGND VPWR VPWR sky130_fd_sc_hd__decap_3
XFILLER_92_139 VGND VGND VPWR VPWR sky130_fd_sc_hd__fill_1
XFILLER_46_567 VGND VGND VPWR VPWR sky130_fd_sc_hd__fill_2
XFILLER_33_228 VGND VGND VPWR VPWR sky130_fd_sc_hd__decap_3
XFILLER_61_548 VGND VGND VPWR VPWR sky130_fd_sc_hd__decap_3
XFILLER_14_475 VGND VGND VPWR VPWR sky130_fd_sc_hd__fill_1
XFILLER_53_94 VGND VGND VPWR VPWR sky130_fd_sc_hd__decap_3
XTAP_TAPCELL_ROW_24_470 VGND VPWR sky130_fd_sc_hd__tapvpwrvgnd_1
XFILLER_68_103 VGND VGND VPWR VPWR sky130_fd_sc_hd__decap_3
XFILLER_96_401 VGND VGND VPWR VPWR sky130_fd_sc_hd__decap_3
XFILLER_68_136 VGND VGND VPWR VPWR sky130_fd_sc_hd__decap_3
X_5090_ _4998_/A _4998_/B _4998_/C _4998_/D VGND VGND VPWR VPWR _5090_/X sky130_fd_sc_hd__a22o_2
X_4110_ _4111_/A _4111_/B _4225_/A VGND VGND VPWR VPWR _4139_/A sky130_fd_sc_hd__and3_2
XFILLER_96_445 VGND VGND VPWR VPWR sky130_fd_sc_hd__decap_3
XFILLER_56_309 VGND VGND VPWR VPWR sky130_fd_sc_hd__decap_3
XFILLER_68_147 VGND VGND VPWR VPWR sky130_fd_sc_hd__decap_3
XFILLER_68_158 VGND VGND VPWR VPWR sky130_fd_sc_hd__decap_3
X_4041_ _4036_/A _4036_/B _4036_/C VGND VGND VPWR VPWR _4042_/B sky130_fd_sc_hd__o21ai_2
XFILLER_83_128 VGND VGND VPWR VPWR sky130_fd_sc_hd__decap_3
XFILLER_37_545 VGND VGND VPWR VPWR sky130_fd_sc_hd__decap_3
XFILLER_37_567 VGND VGND VPWR VPWR sky130_fd_sc_hd__decap_3
XFILLER_64_342 VGND VGND VPWR VPWR sky130_fd_sc_hd__decap_3
XFILLER_76_191 VGND VGND VPWR VPWR sky130_fd_sc_hd__decap_3
XFILLER_52_504 VGND VGND VPWR VPWR sky130_fd_sc_hd__decap_3
XFILLER_64_386 VGND VGND VPWR VPWR sky130_fd_sc_hd__decap_3
X_5992_ _5992_/A _5992_/B VGND VGND VPWR VPWR _5997_/A sky130_fd_sc_hd__nand2_2
X_4943_ _4942_/A _4942_/C _5030_/A VGND VGND VPWR VPWR _4998_/B sky130_fd_sc_hd__a21o_2
XFILLER_20_412 VGND VGND VPWR VPWR sky130_fd_sc_hd__fill_1
XFILLER_60_570 VGND VGND VPWR VPWR sky130_fd_sc_hd__decap_3
XFILLER_60_592 VGND VGND VPWR VPWR sky130_fd_sc_hd__decap_3
X_6613_ _6597_/X _6598_/Y _6600_/Y _6612_/X VGND VGND VPWR VPWR _6987_/A sky130_fd_sc_hd__a211o_2
X_4874_ _4871_/A _4872_/Y _4828_/A _4830_/B VGND VGND VPWR VPWR _4876_/D sky130_fd_sc_hd__o211ai_2
XTAP_TAPCELL_ROW_50_738 VGND VPWR sky130_fd_sc_hd__tapvpwrvgnd_1
XFILLER_32_294 VGND VGND VPWR VPWR sky130_fd_sc_hd__fill_1
X_3825_ _6025_/B _6024_/B _3933_/B _3933_/D VGND VGND VPWR VPWR _3938_/A sky130_fd_sc_hd__and4_2
XFILLER_20_489 VGND VGND VPWR VPWR sky130_fd_sc_hd__decap_3
X_6544_ _6339_/Y _6542_/X _6543_/X VGND VGND VPWR VPWR _6544_/X sky130_fd_sc_hd__o21ba_2
X_3756_ _4282_/A _4406_/C _4406_/D _4165_/A VGND VGND VPWR VPWR _3757_/D sky130_fd_sc_hd__a22o_2
X_6475_ _6569_/B _6474_/X _5777_/Y _6474_/S VGND VGND VPWR VPWR _6476_/A sky130_fd_sc_hd__o2bb2a_2
X_5426_ _5428_/A _5428_/B _5428_/C VGND VGND VPWR VPWR _5426_/Y sky130_fd_sc_hd__a21oi_2
X_3687_ _3757_/A _4406_/C _4406_/D _6083_/B VGND VGND VPWR VPWR _3688_/D sky130_fd_sc_hd__a22o_2
X_5357_ _5320_/Y _5393_/B _5355_/Y _5356_/X VGND VGND VPWR VPWR _5377_/A sky130_fd_sc_hd__o211ai_2
XFILLER_99_250 VGND VGND VPWR VPWR sky130_fd_sc_hd__decap_3
XFILLER_58_39 VGND VGND VPWR VPWR sky130_fd_sc_hd__fill_2
XFILLER_87_423 VGND VGND VPWR VPWR sky130_fd_sc_hd__decap_3
X_5288_ _5288_/A _5288_/B VGND VGND VPWR VPWR _5431_/B sky130_fd_sc_hd__and2_4
X_4308_ _4309_/A _4309_/B _4309_/C VGND VGND VPWR VPWR _4308_/X sky130_fd_sc_hd__and3_2
XFILLER_59_169 VGND VGND VPWR VPWR sky130_fd_sc_hd__decap_3
X_4239_ _4483_/A _4361_/C _4361_/D _4362_/A VGND VGND VPWR VPWR _4240_/D sky130_fd_sc_hd__a22o_2
XFILLER_74_117 VGND VGND VPWR VPWR sky130_fd_sc_hd__decap_3
XFILLER_74_139 VGND VGND VPWR VPWR sky130_fd_sc_hd__fill_1
XTAP_TAPCELL_ROW_58_827 VGND VPWR sky130_fd_sc_hd__tapvpwrvgnd_1
XFILLER_15_206 VGND VGND VPWR VPWR sky130_fd_sc_hd__decap_3
XFILLER_28_589 VGND VGND VPWR VPWR sky130_fd_sc_hd__decap_3
XFILLER_55_375 VGND VGND VPWR VPWR sky130_fd_sc_hd__decap_3
XFILLER_82_161 VGND VGND VPWR VPWR sky130_fd_sc_hd__decap_3
XFILLER_70_323 VGND VGND VPWR VPWR sky130_fd_sc_hd__decap_3
XFILLER_82_194 VGND VGND VPWR VPWR sky130_fd_sc_hd__fill_2
XFILLER_23_20 VGND VGND VPWR VPWR sky130_fd_sc_hd__fill_1
XFILLER_23_261 VGND VGND VPWR VPWR sky130_fd_sc_hd__decap_3
XFILLER_51_570 VGND VGND VPWR VPWR sky130_fd_sc_hd__decap_3
XFILLER_11_434 VGND VGND VPWR VPWR sky130_fd_sc_hd__decap_3
XFILLER_23_53 VGND VGND VPWR VPWR sky130_fd_sc_hd__decap_3
XFILLER_7_416 VGND VGND VPWR VPWR sky130_fd_sc_hd__decap_3
XFILLER_7_449 VGND VGND VPWR VPWR sky130_fd_sc_hd__decap_3
XTAP_TAPCELL_ROW_21_440 VGND VPWR sky130_fd_sc_hd__tapvpwrvgnd_1
XTAP_TAPCELL_ROW_94_1203 VGND VPWR sky130_fd_sc_hd__tapvpwrvgnd_1
XFILLER_2_132 VGND VGND VPWR VPWR sky130_fd_sc_hd__decap_3
XFILLER_78_412 VGND VGND VPWR VPWR sky130_fd_sc_hd__decap_3
XFILLER_78_445 VGND VGND VPWR VPWR sky130_fd_sc_hd__decap_3
XFILLER_38_309 VGND VGND VPWR VPWR sky130_fd_sc_hd__decap_3
XFILLER_17_9 VGND VGND VPWR VPWR sky130_fd_sc_hd__fill_1
XFILLER_48_72 VGND VGND VPWR VPWR sky130_fd_sc_hd__decap_3
XFILLER_48_94 VGND VGND VPWR VPWR sky130_fd_sc_hd__decap_3
XFILLER_65_128 VGND VGND VPWR VPWR sky130_fd_sc_hd__decap_3
Xfanout491 _4362_/A VGND VGND VPWR VPWR _3639_/A sky130_fd_sc_hd__clkbuf_2
XFILLER_93_437 VGND VGND VPWR VPWR sky130_fd_sc_hd__decap_3
XFILLER_93_426 VGND VGND VPWR VPWR sky130_fd_sc_hd__decap_3
XFILLER_0_24 VGND VGND VPWR VPWR sky130_fd_sc_hd__decap_3
XFILLER_46_375 VGND VGND VPWR VPWR sky130_fd_sc_hd__decap_3
XFILLER_73_150 VGND VGND VPWR VPWR sky130_fd_sc_hd__decap_3
XFILLER_64_82 VGND VGND VPWR VPWR sky130_fd_sc_hd__fill_2
XFILLER_73_172 VGND VGND VPWR VPWR sky130_fd_sc_hd__decap_3